Circuit: * E:\EECE 2150\Lab 10\15 onward.asc

Direct Newton iteration failed to find .op point.  (Use ".option noopiter" to skip.)
Starting Gmin stepping
Gmin = 10
Gmin = 1.07374
Gmin = 0.115292
Gmin = 0.0123794
Gmin = 0.00132923
Gmin = 0.000142725
Gmin = 1.5325e-005
Gmin = 1.6455e-006
Gmin = 1.76685e-007
vernier = 0.5
Gmin = 2.96428e-008
vernier = 0.25
vernier = 0.125
vernier = 0.0625
vernier = 0.0833333
Gmin = 2.63234e-008
vernier = 0.0416667
vernier = 0.0555555
Gmin = 2.38179e-008
vernier = 0.074074
Gmin = 2.01897e-008
vernier = 0.0987653
vernier = 0.131687
Gmin = 1.53215e-008
vernier = 0.175583
vernier = 0.23411
Gmin = 9.9042e-009
vernier = 0.312147
Gmin = 5.02585e-009
vernier = 0.416196
vernier = 0.554928
Gmin = 1.65042e-009
vernier = 0.739903
vernier = 0.986537
Gmin = 2.95812e-010
vernier = 1
Gmin = 3.21069e-011
Gmin = 3.44746e-012
Gmin = 3.70168e-013
Gmin = 0
Gmin stepping succeeded in finding the operating point.


Date: Mon Nov 04 12:02:23 2024
Total elapsed time: 0.080 seconds.

tnom = 27
temp = 27
method = trap
totiter = 1089
traniter = 0
tranpoints = 0
accept = 0
rejected = 0
matrix size = 21
fillins = 10
solver = Normal
Matrix Compiler1:      82 opcodes
Matrix Compiler2:     160 opcodes  0.2/[0.2]/0.2

